testData/IEEE300/baseCases/IEEE300Bus_modified_noHVDC_v2_zone1scalepercent_15.raw
0,   100.00, 30, 0, 1,  60.00     / PSS(R)E 30 RAW created by rawd30  WED, MAY 13 2020  15:14
 00/00/01                      100.0  0    0
 0
     1,'1           ', 115.0000,1,     0.000,     0.000,   1,   1,1.01105,   2.8155,   1
     2,'2           ', 115.0000,1,     0.000,     0.000,   1,   1,1.02924,   5.1043,   1
     3,'3           ', 230.0000,1,     0.000,     0.000,   1,   1,0.98075,   6.7106,   1
     4,'4           ', 345.0000,1,     0.000,     0.000,   1,   1,1.00874,   4.1484,   1
     5,'5           ', 115.0000,1,     0.000,     0.000,   1,   1,0.99745,   1.0748,   1
     6,'6           ', 115.0000,1,     0.000,     0.000,   1,   1,1.02187,   4.5588,   1
     7,'7           ', 230.0000,1,     0.000,     0.000,   1,   1,0.97739,   5.9057,   1
     8,'8           ', 115.0000,1,     0.000,     0.000,   1,   1,1.01528,  -3.3357,   1
     9,'9           ', 115.0000,1,     0.000,     0.000,   1,   1,0.98339,  -2.6095,   1
    10,'10          ', 230.0000,1,     0.000,     0.000,   1,   1,1.02049,  -4.2047,   1
    11,'11          ', 115.0000,1,     0.000,     0.000,   1,   1,0.99793,  -3.9671,   1
    12,'12          ', 230.0000,1,     0.000,     0.000,   1,   1,0.98156,   2.5203,   1
    13,'13          ', 115.0000,1,     0.000,     0.000,   1,   1,0.98985,  -8.6475,   1
    14,'14          ', 115.0000,1,     0.000,     0.000,   1,   1,0.96323, -13.6488,   1
    15,'15          ', 115.0000,1,     0.000,     0.000,   1,   1,0.99859, -18.7346,   1
    16,'16          ', 345.0000,1,     0.000,     0.000,   1,   1,0.99349,  -5.7235,   1
    17,'17          ', 115.0000,1,     0.000,     0.000,   1,   1,1.01657, -29.4756,   1
    19,'19          ', 230.0000,1,     0.000,     0.000,   1,   1,0.95586,  -5.0706,   1
    20,'20          ', 115.0000,1,     0.000,     0.000,   1,   1,1.00097, -11.5829,   1
    21,'21          ', 230.0000,1,     0.000,     0.000,   1,   1,0.95779,  -4.8401,   1
    22,'22          ', 115.0000,1,     0.000,     0.000,   1,   1,0.98610, -11.5964,   1
    23,'23          ', 115.0000,1,     0.000,     0.000,   1,   1,1.04373,  -4.9954,   1
    24,'24          ', 230.0000,1,     0.000,     0.000,   1,   1,0.99655,  -1.3519,   1
    25,'25          ', 115.0000,1,     0.000,     0.000,   1,   1,1.00208,  -8.5160,   1
    26,'26          ', 115.0000,1,     0.000,     0.000,   1,   1,0.96576, -12.8941,   1
    27,'27          ', 115.0000,1,     0.000,     0.000,   1,   1,0.93625, -16.9251,   1
    33,'33          ', 115.0000,1,     0.000,     0.000,   1,   1,0.98465, -17.9271,   1
    34,'34          ', 345.0000,1,     0.000,     0.000,   1,   1,1.00473, -10.3365,   1
    35,'35          ', 115.0000,1,     0.000,     0.000,   1,   1,0.96692, -26.0238,   1
    36,'36          ', 230.0000,1,     0.000,     0.000,   1,   1,0.97075, -19.7628,   1
    37,'37          ', 115.0000,1,     0.000,     0.000,   1,   1,0.98611, -17.5830,   1
    38,'38          ', 115.0000,1,     0.000,     0.000,   1,   1,0.97883, -18.7671,   1
    39,'39          ', 345.0000,1,     0.000,     0.000,   1,   1,1.02445,  -7.4559,   1
    40,'40          ', 115.0000,1,     0.000,     0.000,   1,   1,0.98236, -19.8073,   1
    41,'41          ', 115.0000,1,     0.000,     0.000,   1,   1,0.99284, -15.2691,   1
    42,'42          ', 345.0000,1,     0.000,     0.000,   1,   1,1.01040,  -9.4245,   1
    43,'43          ', 115.0000,1,     0.000,     0.000,   1,   1,0.95011, -23.5829,   1
    44,'44          ', 115.0000,1,     0.000,     0.000,   1,   1,0.96601, -21.5709,   1
    45,'45          ', 230.0000,1,     0.000,     0.000,   1,   1,0.97919, -16.0372,   1
    46,'46          ', 345.0000,1,     0.000,     0.000,   1,   1,0.99864, -11.7120,   1
    47,'47          ', 115.0000,1,     0.000,     0.000,   1,   1,0.92291, -28.7102,   1
    48,'48          ', 115.0000,1,     0.000,     0.000,   1,   1,0.96207, -28.2095,   1
    49,'49          ', 115.0000,1,     0.000,     0.000,   1,   1,1.03749,  -4.0681,   1
    51,'51          ', 115.0000,1,     0.000,     0.000,   1,   1,0.98922, -11.9308,   1
    52,'52          ', 115.0000,1,     0.000,     0.000,   1,   1,0.94430, -18.1869,   1
    53,'53          ', 115.0000,1,     0.000,     0.000,   1,   1,0.94230, -24.8371,   1
    54,'54          ', 115.0000,1,     0.000,     0.000,   1,   1,0.95815, -22.3568,   1
    55,'55          ', 115.0000,1,     0.000,     0.000,   1,   1,0.97504, -18.8844,   1
    57,'57          ', 115.0000,1,     0.000,     0.000,   1,   1,1.00987, -15.6303,   1
    58,'58          ', 115.0000,1,     0.000,     0.000,   1,   1,0.95417, -12.6846,   1
    59,'59          ', 115.0000,1,     0.000,     0.000,   1,   1,0.93743, -11.5860,   1
    60,'60          ', 230.0000,1,     0.000,     0.000,   1,   1,0.98621,  -9.7055,   1
    61,'61          ', 115.0000,1,     0.000,     0.000,   1,   1,0.95855,  -8.6214,   1
    62,'62          ', 230.0000,1,     0.000,     0.000,   1,   1,0.99127,   0.4315,   1
    63,'63          ', 115.0000,1,     0.000,     0.000,   1,   1,0.95829, -21.4910,   1
    64,'64          ', 230.0000,1,     0.000,     0.000,   1,   1,0.93312, -15.5468,   1
    69,'69          ', 115.0000,1,     0.000,     0.000,   1,   1,0.92580, -20.7707,   1
    70,'70          ', 115.0000,1,     0.000,     0.000,   1,   1,0.91930, -38.7651,   1
    71,'71          ', 115.0000,1,     0.000,     0.000,   1,   1,0.94913, -33.1353,   1
    72,'72          ', 115.0000,1,     0.000,     0.000,   1,   1,0.94768, -28.8972,   1
    73,'73          ', 115.0000,1,     0.000,     0.000,   1,   1,0.94180, -26.9259,   1
    74,'74          ', 230.0000,1,     0.000,     0.000,   1,   1,0.95595, -20.9234,   1
    76,'76          ', 115.0000,1,     0.000,     0.000,   1,   1,0.96317, -27.9353,   1
    77,'77          ', 115.0000,1,     0.000,     0.000,   1,   1,0.96902, -24.8222,   1
    78,'78          ', 115.0000,1,     0.000,     0.000,   1,   1,0.97494, -23.7482,   1
    79,'79          ', 115.0000,1,     0.000,     0.000,   1,   1,0.95657, -24.4649,   1
    80,'80          ', 115.0000,1,     0.000,     0.000,   1,   1,0.96198, -20.7234,   1
    81,'81          ', 345.0000,1,     0.000,     0.000,   1,   1,0.99971, -10.2914,   1
    84,'84          ', 115.0000,1,     0.000,     0.000,   1,   1,1.02498, -16.0184,   1
    85,'85          ', 230.0000,1,     0.000,     0.000,   1,   1,0.97052, -35.8759,   1
    86,'86          ', 230.0000,1,     0.000,     0.000,   1,   1,0.96196, -30.8777,   1
    87,'87          ', 230.0000,1,     0.000,     0.000,   1,   1,0.95125, -20.1787,   1
    88,'88          ', 230.0000,1,     0.000,     0.000,   1,   1,0.98090, -16.2523,   1
    89,'89          ', 115.0000,1,     0.000,     0.000,   1,   1,1.00683, -23.8526,   1
    90,'90          ', 115.0000,1,     0.000,     0.000,   1,   1,0.99357, -22.2948,   1
    91,'91          ', 115.0000,1,     0.000,     0.000,   1,   1,1.05199, -24.4974,   1
    92,'92          ', 115.0000,1,     0.000,     0.000,   1,   1,1.05199, -19.8194,   1
    94,'94          ', 115.0000,1,     0.000,     0.000,   1,   1,0.96188, -23.1860,   1
    97,'97          ', 115.0000,1,     0.000,     0.000,   1,   1,1.00602, -30.0482,   1
    98,'98          ', 115.0000,1,     0.000,     0.000,   1,   1,1.00000, -33.2485,   1
    99,'99          ', 115.0000,1,     0.000,     0.000,   1,   1,0.98617, -39.4085,   1
   100,'100         ', 115.0000,1,     0.000,     0.000,   1,   1,0.99546, -32.1631,   1
   102,'102         ', 115.0000,1,     0.000,     0.000,   1,   1,0.98582, -33.0334,   1
   103,'103         ', 115.0000,1,     0.000,     0.000,   1,   1,1.01589, -27.6266,   1
   104,'104         ', 115.0000,1,     0.000,     0.000,   1,   1,0.98412, -35.8749,   1
   105,'105         ', 115.0000,1,     0.000,     0.000,   1,   1,1.00526, -28.1752,   1
   107,'107         ', 115.0000,1,     0.000,     0.000,   1,   1,0.98166, -30.7980,   1
   108,'108         ', 115.0000,1,     0.000,     0.000,   1,   1,0.98999, -39.6381,   1
   109,'109         ', 115.0000,1,     0.000,     0.000,   1,   1,0.92673, -41.5332,   1
   110,'110         ', 115.0000,1,     0.000,     0.000,   1,   1,0.93390, -42.3676,   1
   112,'112         ', 115.0000,1,     0.000,     0.000,   1,   1,0.91077, -40.2834,   1
   113,'113         ', 115.0000,1,     0.000,     0.000,   1,   1,0.91162, -34.1323,   1
   114,'114         ', 115.0000,1,     0.000,     0.000,   1,   1,0.91320, -39.1647,   1
   115,'115         ', 115.0000,1,     0.000,     0.000,   2,   2,0.91487,  32.5357,   1
   116,'116         ', 115.0000,1,     0.000,     0.000,   2,   2,1.03365,  39.8251,   1
   117,'117         ', 115.0000,1,     0.000,   325.000,   2,   2,0.90030,  46.7249,   1
   118,'118         ', 115.0000,1,     0.000,     0.000,   2,   2,0.89531,  48.0215,   1
   119,'119         ', 115.0000,1,     0.000,     0.000,   2,   2,1.04336,  64.6628,   1
   120,'120         ', 115.0000,1,     0.000,    55.000,   2,   2,1.01033,  59.7942,   1
   121,'121         ', 115.0000,1,     0.000,     0.000,   2,   2,0.84069,  36.7102,   1
   122,'122         ', 115.0000,1,     0.000,     0.000,   2,   2,0.89537,  29.5802,   1
   123,'123         ', 115.0000,1,     0.000,     0.000,   2,   2,0.96608,  24.0885,   1
   124,'124         ', 115.0000,1,     0.000,     0.000,   2,   2,1.02328,  36.3487,   1
   125,'125         ', 115.0000,1,     0.000,     0.000,   2,   2,1.01026,  11.7067,   1
   126,'126         ', 115.0000,1,     0.000,     0.000,   2,   2,0.97007,  15.6620,   1
   127,'127         ', 230.0000,1,     0.000,     0.000,   2,   2,0.98858,   9.7661,   1
   128,'128         ', 230.0000,1,     0.000,     0.000,   2,   2,1.00059,   9.9603,   1
   129,'129         ', 230.0000,1,     0.000,     0.000,   2,   2,0.99969,  10.6553,   1
   130,'130         ', 230.0000,1,     0.000,     0.000,   2,   2,1.01006,  12.9372,   1
   131,'131         ', 230.0000,1,     0.000,     0.000,   2,   2,0.97445,   7.8902,   1
   132,'132         ', 230.0000,1,     0.000,     0.000,   2,   2,0.99891,  12.1134,   1
   133,'133         ', 230.0000,1,     0.000,     0.000,   2,   2,0.99984,   9.2868,   1
   134,'134         ', 230.0000,1,     0.000,     0.000,   2,   2,1.01560,  12.2036,   1
   135,'135         ', 230.0000,1,     0.000,     0.000,   2,   2,1.01419,  12.9801,   1
   136,'136         ', 230.0000,1,     0.000,     0.000,   2,   2,1.04267,  20.2570,   1
   137,'137         ', 230.0000,1,     0.000,     0.000,   2,   2,1.04381,  12.8209,   1
   138,'138         ', 230.0000,1,     0.000,     0.000,   2,   2,1.05496,   3.6422,   1
   139,'139         ', 115.0000,1,     0.000,     0.000,   2,   2,1.01017,  12.7056,   1
   140,'140         ', 230.0000,1,     0.000,     0.000,   2,   2,1.04100,  11.6005,   1
   141,'141         ', 230.0000,1,     0.000,     0.000,   2,   2,1.05099,  16.4995,   1
   142,'142         ', 230.0000,1,     0.000,     0.000,   2,   2,1.01499,  11.2869,   1
   143,'143         ', 230.0000,1,     0.000,     0.000,   2,   2,1.04348,  17.0428,   1
   144,'144         ', 230.0000,1,     0.000,     0.000,   2,   2,0.99256,   1.7378,   1
   145,'145         ', 230.0000,1,     0.000,     0.000,   2,   2,1.00757,  14.4902,   1
   146,'146         ', 230.0000,1,     0.000,     0.000,   2,   2,1.05280,  20.1293,   1
   147,'147         ', 230.0000,1,     0.000,     0.000,   2,   2,1.05280,  24.8031,   1
   148,'148         ', 230.0000,1,     0.000,     0.000,   2,   2,1.05693,  13.6610,   1
   149,'149         ', 230.0000,1,     0.000,     0.000,   2,   2,1.07350,  19.2874,   1
   150,'150         ', 230.0000,1,     0.000,     0.000,   2,   2,0.97584,   8.8072,   1
   151,'151         ', 230.0000,1,     0.000,     0.000,   2,   2,0.99903,  11.8605,   1
   152,'152         ', 230.0000,1,     0.000,     0.000,   2,   2,1.05350,  29.2573,   1
   153,'153         ', 230.0000,1,     0.000,     0.000,   2,   2,1.04350,  30.9555,   1
   154,'154         ', 115.0000,1,     0.000,    34.500,   2,   2,0.96733,  18.2562,   1
   155,'155         ', 230.0000,1,     0.000,     0.000,   2,   2,1.00938,  26.3561,   1
   156,'156         ', 115.0000,1,     0.000,     0.000,   2,   2,0.96300,  24.7535,   1
   157,'157         ', 230.0000,1,     0.000,     0.000,   2,   2,0.90831,  30.9357,   1
   158,'158         ', 230.0000,1,     0.000,     0.000,   2,   2,0.93396,  29.9982,   1
   159,'159         ', 230.0000,1,     0.000,     0.000,   2,   2,0.89751,  35.7151,   1
   160,'160         ', 230.0000,1,     0.000,     0.000,   2,   2,0.97314,  33.4471,   1
   161,'161         ', 230.0000,1,     0.000,     0.000,   2,   2,1.03300,  29.0508,   1
   162,'162         ', 230.0000,1,     0.000,     0.000,   2,   2,0.97287,  39.8168,   1
   163,'163         ', 230.0000,1,     0.000,     0.000,   2,   2,1.02503,  19.2037,   1
   164,'164         ', 230.0000,1,     0.000,  -212.000,   2,   2,0.96781,  29.0803,   1
   165,'165         ', 230.0000,1,     0.000,     0.000,   2,   2,0.98712,  49.0344,   1
   166,'166         ', 230.0000,1,     0.000,  -103.000,   2,   2,0.98914,  53.6061,   1
   167,'167         ', 230.0000,1,     0.000,     0.000,   2,   2,0.96840,   6.8922,   1
   168,'168         ', 230.0000,1,     0.000,     0.000,   2,   2,1.00058,   9.9536,   1
   169,'169         ', 230.0000,1,     0.000,     0.000,   2,   2,0.98254,   8.6194,   1
   170,'170         ', 115.0000,1,     0.000,     0.000,   2,   2,0.92899,   8.8350,   1
   171,'171         ', 115.0000,1,     0.000,     0.000,   2,   2,0.98288,   4.7997,   1
   172,'172         ', 115.0000,1,     0.000,     0.000,   2,   2,1.02270,  10.0136,   1
   173,'173         ', 115.0000,1,     0.000,    53.000,   2,   2,0.98079,   3.1378,   1
   174,'174         ', 115.0000,1,     0.000,     0.000,   2,   2,1.06154,  13.6572,   1
   175,'175         ', 115.0000,1,     0.000,     0.000,   2,   2,0.97225,   7.3483,   1
   176,'176         ', 115.0000,1,     0.000,     0.000,   2,   2,1.05220,  21.8080,   1
   177,'177         ', 115.0000,1,     0.000,     0.000,   2,   2,1.00770,  16.9735,   1
   178,'178         ', 115.0000,1,     0.000,     0.000,   2,   2,0.93906,   8.3076,   1
   179,'179         ', 115.0000,1,     0.000,    45.000,   2,   2,0.96993,   5.0561,   1
   180,'180         ', 115.0000,1,     0.000,     0.000,   2,   2,0.97865,  11.6359,   1
   181,'181         ', 230.0000,1,     0.000,     0.000,   2,   2,1.04797,  12.4891,   1
   182,'182         ', 230.0000,1,     0.000,     0.000,   2,   2,1.04338,  11.3252,   1
   183,'183         ', 115.0000,1,     0.000,     0.000,   2,   2,0.97180,  27.5436,   1
   184,'184         ', 230.0000,1,     0.000,     0.000,   2,   2,1.03573,  13.9924,   1
   185,'185         ', 230.0000,1,     0.000,     0.000,   2,   2,1.05220,  16.8739,   1
   186,'186         ', 230.0000,1,     0.000,     0.000,   2,   2,1.06497,  16.7398,   1
   187,'187         ', 230.0000,1,     0.000,     0.000,   2,   2,1.06497,  15.6608,   1
   188,'188         ', 230.0000,1,     0.000,     0.000,   2,   2,1.05005,  13.2441,   1
   189,'189         ',  66.0000,1,     0.000,     0.000,   3,   3,0.98501, -16.6992,   1
   190,'190         ', 345.0000,1,     0.000,  -150.000,   3,   3,1.05509,   1.0593,   1
   191,'191         ', 230.0000,1,     0.000,     0.000,   3,   3,1.04340,  57.9629,   1
   192,'192         ', 230.0000,1,     0.000,     0.000,   3,   3,0.87796,  28.0975,   1
   193,'192         ',  66.0000,1,     0.000,     0.000,   3,   3,0.96895, -18.6971,   1
   194,'194         ', 345.0000,1,     0.000,     0.000,   3,   3,1.02495,  -3.8904,   1
   195,'195         ', 345.0000,1,     0.000,     0.000,   3,   3,1.01301,  -6.2109,   1
   196,'196         ', 115.0000,1,     0.000,     0.000,   3,   3,0.94942, -14.7146,   1
   197,'197         ', 115.0000,1,     0.000,     0.000,   3,   3,0.97668, -12.5115,   1
   198,'198         ', 115.0000,1,     0.000,     0.000,   3,   3,1.01498,  -8.8019,   1
   199,'199         ', 115.0000,1,     0.000,     0.000,   3,   3,0.94450, -13.9687,   1
   200,'200         ', 115.0000,1,     0.000,     0.000,   3,   3,0.95204, -13.0104,   1
   201,'201         ',  66.0000,1,     0.000,     0.000,   1,   1,0.91830, -23.0888,   1
   202,'202         ',  66.0000,1,     0.000,     0.000,   3,   3,0.97471, -13.8372,   1
   203,'203         ', 115.0000,1,     0.000,     0.000,   3,   3,0.99538, -10.6961,   1
   204,'204         ',  66.0000,1,     0.000,     0.000,   3,   3,0.94023, -18.9173,   1
   205,'205         ',  66.0000,1,     0.000,     0.000,   3,   3,0.95391, -19.5099,   1
   206,'206         ',  66.0000,1,     0.000,     0.000,   3,   3,0.93072, -28.5474,   1
   207,'207         ',  66.0000,1,     0.000,     0.000,   1,   1,0.92678, -32.2944,   1
   208,'208         ',  66.0000,1,     0.000,     0.000,   3,   3,0.97222, -18.8926,   1
   209,'209         ',  66.0000,1,     0.000,     0.000,   3,   3,0.99382, -15.8512,   1
   210,'210         ', 115.0000,1,     0.000,     0.000,   3,   3,0.96821, -12.7198,   1
   211,'211         ', 115.0000,1,     0.000,     0.000,   3,   3,0.98390, -11.8482,   1
   212,'212         ', 138.0000,1,     0.000,     0.000,   3,   3,0.99606,  -9.5861,   1
   213,'213         ',  16.5000,1,     0.000,     0.000,   3,   3,1.00999,   8.0313,   1
   214,'214         ', 138.0000,1,     0.000,     0.000,   3,   3,0.98988,   1.3062,   1
   215,'215         ', 138.0000,1,     0.000,     0.000,   3,   3,0.98147,  -1.9358,   1
   216,'216         ', 138.0000,1,     0.000,     0.000,   3,   3,0.97121,  -3.2140,   1
   217,'217         ', 138.0000,1,     0.000,     0.000,   3,   3,1.01655,  -0.9053,   1
   218,'218         ', 138.0000,1,     0.000,     0.000,   3,   3,1.00250,  -0.9023,   1
...
 0 /End of Bus data, Begin Load data
     1,'1 ',1,   1,   1,   136.355,    74.238,     0.000,     0.000,     0.000,     0.000,   1
     2,'1 ',1,   1,   1,    84.843,    22.726,     0.000,     0.000,     0.000,     0.000,   1
     3,'1 ',1,   1,   1,    30.301,     0.000,     0.000,     0.000,     0.000,     0.000,   1
     5,'1 ',1,   1,   1,   534.817,   196.958,     0.000,     0.000,     0.000,     0.000,   1
     6,'1 ',1,   1,   1,   181.807,    62.118,     0.000,     0.000,     0.000,     0.000,   1
     8,'1 ',1,   1,   1,    87.874,    21.211,     0.000,     0.000,     0.000,     0.000,   1
     9,'1 ',1,   1,   1,   145.446,    65.148,     0.000,     0.000,     0.000,     0.000,   1
    10,'1 ',1,   1,   1,   224.229,    49.997,     0.000,     0.000,     0.000,     0.000,   1
    11,'1 ',1,   1,   1,   125.750,    31.816,     0.000,     0.000,     0.000,     0.000,   1
    13,'1 ',1,   1,   1,    87.874,    15.151,     0.000,     0.000,     0.000,     0.000,   1
    14,'1 ',1,   1,   1,   242.410,    90.904,     0.000,     0.000,     0.000,     0.000,   1
    15,'1 ',1,   1,   1,   191.958,    34.846,     0.000,     0.000,     0.000,     0.000,   1
    17,'1 ',1,   1,   1,   849.949,   333.313,     0.000,     0.000,     0.000,     0.000,   1
    20,'1 ',1,   1,   1,   901.461,   181.807,     0.000,     0.000,     0.000,     0.000,   1
    21,'1 ',1,   1,   1,   116.660,     1.515,     0.000,     0.000,     0.000,     0.000,   1
    22,'1 ',1,   1,   1,   122.720,    34.846,     0.000,     0.000,     0.000,     0.000,   1
    23,'1 ',1,   1,   1,    31.816,    10.605,     0.000,     0.000,     0.000,     0.000,   1
    25,'1 ',1,   1,   1,    68.178,    18.181,     0.000,     0.000,     0.000,     0.000,   1
    26,'1 ',1,   1,   1,    42.422,    13.636,     0.000,     0.000,     0.000,     0.000,   1
    27,'1 ',1,   1,   1,   104.539,    19.696,     0.000,     0.000,     0.000,     0.000,   1
    33,'1 ',1,   1,   1,    83.328,     9.090,     0.000,     0.000,     0.000,     0.000,   1
    37,'1 ',1,   1,   1,   128.780,    48.482,     0.000,     0.000,     0.000,     0.000,   1
    38,'1 ',1,   1,   1,   234.834,    27.271,     0.000,     0.000,     0.000,     0.000,   1
    40,'1 ',1,   1,   1,    69.693,   -31.816,     0.000,     0.000,     0.000,     0.000,   1
    41,'1 ',1,   1,   1,   130.295,     0.000,     0.000,     0.000,     0.000,     0.000,   1
    43,'1 ',1,   1,   1,    59.087,    13.636,     0.000,     0.000,     0.000,     0.000,   1
    44,'1 ',1,   1,   1,   295.437,    43.937,     0.000,     0.000,     0.000,     0.000,   1
    47,'1 ',1,   1,   1,    87.874,    17.878,     0.000,     0.000,     0.000,     0.000,   1
    48,'1 ',1,   1,   1,    62.118,    28.786,     0.000,     0.000,     0.000,     0.000,   1
    49,'1 ',1,   1,   1,   139.386,    39.392,     0.000,     0.000,     0.000,     0.000,   1
    51,'1 ',1,   1,   1,    -7.575,     7.575,     0.000,     0.000,     0.000,     0.000,   1
    52,'1 ',1,   1,   1,    92.419,    42.422,     0.000,     0.000,     0.000,     0.000,   1
    53,'1 ',1,   1,   1,   104.539,     4.545,     0.000,     0.000,     0.000,     0.000,   1
    54,'1 ',1,   1,   1,    15.151,     1.515,     0.000,     0.000,     0.000,     0.000,   1
    55,'1 ',1,   1,   1,    33.331,    15.151,     0.000,     0.000,     0.000,     0.000,   1
    57,'1 ',1,   1,   1,   148.476,    30.301,     0.000,     0.000,     0.000,     0.000,   1
    58,'1 ',1,   1,   1,    21.211,     1.515,     0.000,     0.000,     0.000,     0.000,   1
    59,'1 ',1,   1,   1,   330.283,   160.596,     0.000,     0.000,     0.000,     0.000,   1
    61,'1 ',1,   1,   1,   343.919,   166.657,     0.000,     0.000,     0.000,     0.000,   1
    63,'1 ',1,   1,   1,   106.054,    45.452,     0.000,     0.000,     0.000,     0.000,   1
    70,'1 ',1,   1,   1,    56.000,    20.000,     0.000,     0.000,     0.000,     0.000,   1
    71,'1 ',1,   1,   1,   175.747,    57.572,     0.000,     0.000,     0.000,     0.000,   1
    72,'1 ',1,   1,   1,    86.358,    28.786,     0.000,     0.000,     0.000,     0.000,   1
    73,'1 ',1,   1,   1,   339.374,   107.569,     0.000,     0.000,     0.000,     0.000,   1
    76,'1 ',1,   1,   1,   315.133,   162.112,     0.000,     0.000,     0.000,     0.000,   1
    77,'1 ',1,   1,   1,   112.115,    42.422,     0.000,     0.000,     0.000,     0.000,   1
    79,'1 ',1,   1,   1,    72.723,    21.211,     0.000,     0.000,     0.000,     0.000,   1
    80,'1 ',1,   1,   1,    42.422,    10.605,     0.000,     0.000,     0.000,     0.000,   1
    84,'1 ',1,   1,   1,    56.057,    19.696,     0.000,     0.000,     0.000,     0.000,   1
    89,'1 ',1,   1,   1,    66.966,     0.000,     0.000,     0.000,     0.000,     0.000,   1
    90,'1 ',1,   1,   1,    99.994,     0.000,     0.000,     0.000,     0.000,     0.000,   1
    91,'1 ',1,   1,   1,    26.362,     0.000,     0.000,     0.000,     0.000,     0.000,   1
    92,'1 ',1,   1,   1,    23.938,     0.000,     0.000,     0.000,     0.000,     0.000,   1
    94,'1 ',1,   1,   1,    91.358,     0.000,     0.000,     0.000,     0.000,     0.000,   1
    97,'1 ',1,   1,   1,    60.451,     0.000,     0.000,     0.000,     0.000,     0.000,   1
    98,'1 ',1,   1,   1,   101.055,     0.000,     0.000,     0.000,     0.000,     0.000,   1
    99,'1 ',1,   1,   1,   126.508,     0.000,     0.000,     0.000,     0.000,     0.000,   1
   102,'1 ',1,   1,   1,   117.872,     0.000,     0.000,     0.000,     0.000,     0.000,   1
   103,'1 ',1,   1,   1,    48.482,     0.000,     0.000,     0.000,     0.000,     0.000,   1
   104,'1 ',1,   1,   1,    13.030,     0.000,     0.000,     0.000,     0.000,     0.000,   1
   105,'1 ',1,   1,   1,    75.147,     0.000,     0.000,     0.000,     0.000,     0.000,   1
   107,'1 ',1,   1,   1,     6.969,     0.000,     0.000,     0.000,     0.000,     0.000,   1
   108,'1 ',1,   1,   1,   169.838,     0.000,     0.000,     0.000,     0.000,     0.000,   1
   109,'1 ',1,   1,   1,    46.512,     0.000,     0.000,     0.000,     0.000,     0.000,   1
   110,'1 ',1,   1,   1,    95.449,     0.000,     0.000,     0.000,     0.000,     0.000,   1
   112,'1 ',1,   1,   1,    29.695,     0.000,     0.000,     0.000,     0.000,     0.000,   1
   113,'1 ',1,   1,   1,    27.000,     0.000,     0.000,     0.000,     0.000,     0.000,   1
   114,'1 ',1,   1,   1,    27.574,     0.000,     0.000,     0.000,     0.000,     0.000,   1
   118,'1 ',1,   2,   2,    14.100,   650.000,     0.000,     0.000,     0.000,     0.000,   1
   119,'1 ',1,   2,   2,   100.300,    34.400,     0.000,     0.000,     0.000,     0.000,   1
   121,'1 ',1,   2,   2,   535.000,    55.000,     0.000,     0.000,     0.000,     0.000,   1
   122,'1 ',1,   2,   2,   229.100,    11.800,     0.000,     0.000,     0.000,     0.000,   1
   123,'1 ',1,   2,   2,    78.000,     1.400,     0.000,     0.000,     0.000,     0.000,   1
   124,'1 ',1,   2,   2,   276.400,    59.300,     0.000,     0.000,     0.000,     0.000,   1
   125,'1 ',1,   2,   2,   514.800,    82.700,     0.000,     0.000,     0.000,     0.000,   1
   126,'1 ',1,   2,   2,    57.900,     5.100,     0.000,     0.000,     0.000,     0.000,   1
   127,'1 ',1,   2,   2,   380.800,    37.000,     0.000,     0.000,     0.000,     0.000,   1
   135,'1 ',1,   2,   2,   169.200,    41.600,     0.000,     0.000,     0.000,     0.000,   1
   136,'1 ',1,   2,   2,    55.200,    18.200,     0.000,     0.000,     0.000,     0.000,   1
   137,'1 ',1,   2,   2,   273.600,    99.800,     0.000,     0.000,     0.000,     0.000,   1
   138,'1 ',1,   2,   2,   826.700,   135.200,     0.000,     0.000,     0.000,     0.000,   1
   139,'1 ',1,   2,   2,   595.000,    83.300,     0.000,     0.000,     0.000,     0.000,   1
   140,'1 ',1,   2,   2,   387.700,   114.700,     0.000,     0.000,     0.000,     0.000,   1
   141,'1 ',1,   2,   2,   145.000,    58.000,     0.000,     0.000,     0.000,     0.000,   1
   142,'1 ',1,   2,   2,    56.500,    24.500,     0.000,     0.000,     0.000,     0.000,   1
   143,'1 ',1,   2,   2,    89.500,    35.500,     0.000,     0.000,     0.000,     0.000,   1
   145,'1 ',1,   2,   2,    24.000,    14.000,     0.000,     0.000,     0.000,     0.000,   1
   148,'1 ',1,   2,   2,    63.000,    25.000,     0.000,     0.000,     0.000,     0.000,   1
   152,'1 ',1,   2,   2,    17.000,     9.000,     0.000,     0.000,     0.000,     0.000,   1
   154,'1 ',1,   2,   2,    70.000,     5.000,     0.000,     0.000,     0.000,     0.000,   1
   155,'1 ',1,   2,   2,   200.000,    50.000,     0.000,     0.000,     0.000,     0.000,   1
   156,'1 ',1,   2,   2,    75.000,    50.000,     0.000,     0.000,     0.000,     0.000,   1
   157,'1 ',1,   2,   2,   123.500,    24.300,     0.000,     0.000,     0.000,     0.000,   1
   159,'1 ',1,   2,   2,    33.000,    16.500,     0.000,     0.000,     0.000,     0.000,   1
   161,'1 ',1,   2,   2,    35.000,    15.000,     0.000,     0.000,     0.000,     0.000,   1
   162,'1 ',1,   2,   2,    85.000,    24.000,     0.000,     0.000,     0.000,     0.000,   1
   163,'1 ',1,   2,   2,     0.000,     0.400,     0.000,     0.000,     0.000,     0.000,   1
   167,'1 ',1,   2,   2,   299.900,    95.700,     0.000,     0.000,     0.000,     0.000,   1
   170,'1 ',1,   2,   2,   481.800,   205.000,     0.000,     0.000,     0.000,     0.000,   1
   171,'1 ',1,   2,   2,   763.600,   291.100,     0.000,     0.000,     0.000,     0.000,   1
   172,'1 ',1,   2,   2,    26.500,     0.000,     0.000,     0.000,     0.000,     0.000,   1
   173,'1 ',1,   2,   2,   163.500,    43.000,     0.000,     0.000,     0.000,     0.000,   1
   175,'1 ',1,   2,   2,   176.000,    83.000,     0.000,     0.000,     0.000,     0.000,   1
   176,'1 ',1,   2,   2,     5.000,     4.000,     0.000,     0.000,     0.000,     0.000,   1
   177,'1 ',1,   2,   2,    28.000,    12.000,     0.000,     0.000,     0.000,     0.000,   1
   178,'1 ',1,   2,   2,   427.400,   173.600,     0.000,     0.000,     0.000,     0.000,   1
   179,'1 ',1,   2,   2,    74.000,    29.000,     0.000,     0.000,     0.000,     0.000,   1
   180,'1 ',1,   2,   2,    69.500,    49.300,     0.000,     0.000,     0.000,     0.000,   1
   181,'1 ',1,   2,   2,    73.400,     0.000,     0.000,     0.000,     0.000,     0.000,   1
   182,'1 ',1,   2,   2,   240.700,    89.000,     0.000,     0.000,     0.000,     0.000,   1
   183,'1 ',1,   2,   2,    40.000,     4.000,     0.000,     0.000,     0.000,     0.000,   1
   184,'1 ',1,   2,   2,   136.800,    16.600,     0.000,     0.000,     0.000,     0.000,   1
   186,'1 ',1,   2,   2,    59.800,    24.300,     0.000,     0.000,     0.000,     0.000,   1
   187,'1 ',1,   2,   2,    59.800,    24.300,     0.000,     0.000,     0.000,     0.000,   1
   188,'1 ',1,   2,   2,   182.600,    43.600,     0.000,     0.000,     0.000,     0.000,   1
   189,'1 ',1,   3,   3,     7.000,     2.000,     0.000,     0.000,     0.000,     0.000,   1
   191,'1 ',1,   3,   3,   489.000,    53.000,     0.000,     0.000,     0.000,     0.000,   1
   192,'1 ',1,   3,   3,   800.000,    72.000,     0.000,     0.000,     0.000,     0.000,   1
   196,'1 ',1,   3,   3,    10.000,     3.000,     0.000,     0.000,     0.000,     0.000,   1
   197,'1 ',1,   3,   3,    43.000,    14.000,     0.000,     0.000,     0.000,     0.000,   1
   198,'1 ',1,   3,   3,    64.000,    21.000,     0.000,     0.000,     0.000,     0.000,   1
   199,'1 ',1,   3,   3,    35.000,    12.000,     0.000,     0.000,     0.000,     0.000,   1
   200,'1 ',1,   3,   3,    27.000,    12.000,     0.000,     0.000,     0.000,     0.000,   1
   201,'1 ',1,   1,   1,    62.118,    21.211,     0.000,     0.000,     0.000,     0.000,   1
   202,'1 ',1,   3,   3,    38.000,    13.000,     0.000,     0.000,     0.000,     0.000,   1
   203,'1 ',1,   3,   3,    42.000,    14.000,     0.000,     0.000,     0.000,     0.000,   1
   204,'1 ',1,   3,   3,    72.000,    24.000,     0.000,     0.000,     0.000,     0.000,   1
   205,'1 ',1,   3,   3,     0.000,    -5.000,     0.000,     0.000,     0.000,     0.000,   1
   206,'1 ',1,   3,   3,    12.000,     2.000,     0.000,     0.000,     0.000,     0.000,   1
   207,'1 ',1,   1,   1,   -31.816,   -21.514,     0.000,     0.000,     0.000,     0.000,   1
   208,'1 ',1,   3,   3,     7.000,     2.000,     0.000,     0.000,     0.000,     0.000,   1
   209,'1 ',1,   3,   3,    38.000,    13.000,     0.000,     0.000,     0.000,     0.000,   1
   211,'1 ',1,   3,   3,    96.000,     7.000,     0.000,     0.000,     0.000,     0.000,   1
   214,'1 ',1,   3,   3,    22.000,    16.000,     0.000,     0.000,     0.000,     0.000,   1
   215,'1 ',1,   3,   3,    47.000,    26.000,     0.000,     0.000,     0.000,     0.000,   1
   216,'1 ',1,   3,   3,   176.000,   105.000,     0.000,     0.000,     0.000,     0.000,   1
   217,'1 ',1,   3,   3,   100.000,    75.000,     0.000,     0.000,     0.000,     0.000,   1
   218,'1 ',1,   3,   3,   131.000,    96.000,     0.000,     0.000,     0.000,     0.000,   1
   220,'1 ',1,   3,   3,   285.000,   100.000,     0.000,     0.000,     0.000,     0.000,   1
   221,'1 ',1,   3,   3,   171.000,    70.000,     0.000,     0.000,     0.000,     0.000,   1
   222,'1 ',1,   3,   3,   328.000,   188.000,     0.000,     0.000,     0.000,     0.000,   1
   223,'1 ',1,   3,   3,   428.000,   232.000,     0.000,     0.000,     0.000,     0.000,   1
   224,'1 ',1,   3,   3,   173.000,    99.000,     0.000,     0.000,     0.000,     0.000,   1
   225,'1 ',1,   3,   3,   410.000,    40.000,     0.000,     0.000,     0.000,     0.000,   1
   227,'1 ',1,   3,   3,   538.000,   369.000,     0.000,     0.000,     0.000,     0.000,   1
   228,'1 ',1,   3,   3,   223.000,   148.000,     0.000,     0.000,     0.000,     0.000,   1
   229,'1 ',1,   3,   3,    96.000,    46.000,     0.000,     0.000,     0.000,     0.000,   1
   231,'1 ',1,   3,   3,   159.000,   107.000,     0.000,     0.000,     0.000,     0.000,   1
   232,'1 ',1,   3,   3,   448.000,   143.000,     0.000,     0.000,     0.000,     0.000,   1
   233,'1 ',1,   3,   3,   404.000,   212.000,     0.000,     0.000,     0.000,     0.000,   1
   234,'1 ',1,   3,   3,   572.000,   244.000,     0.000,     0.000,     0.000,     0.000,   1
   235,'1 ',1,   3,   3,   269.000,   157.000,     0.000,     0.000,     0.000,     0.000,   1
   238,'1 ',1,   3,   3,   255.000,   149.000,     0.000,     0.000,     0.000,     0.000,   1
   243,'1 ',1,   3,   3,     8.000,     3.000,     0.000,     0.000,     0.000,     0.000,   1
   245,'1 ',1,   3,   3,    61.000,    30.000,     0.000,     0.000,     0.000,     0.000,   1
   246,'1 ',1,   3,   3,    77.000,    33.000,     0.000,     0.000,     0.000,     0.000,   1
   247,'1 ',1,   3,   3,    61.000,    30.000,     0.000,     0.000,     0.000,     0.000,   1
   248,'1 ',1,   3,   3,    29.000,    14.000,     0.000,     0.000,     0.000,     0.000,   1
   249,'1 ',1,   3,   3,    29.000,    14.000,     0.000,     0.000,     0.000,     0.000,   1
   250,'1 ',1,   3,   3,   -23.000,   -17.000,     0.000,     0.000,     0.000,     0.000,   1
   281,'1 ',1,   3,   3,   -33.100,   -29.400,     0.000,     0.000,     0.000,     0.000,   1
   319,'1 ',1,   1,   1,   175.444,   -36.361,     0.000,     0.000,     0.000,     0.000,   1
   320,'1 ',1,   1,   1,     3.636,   -19.090,     0.000,     0.000,     0.000,     0.000,   1
   322,'1 ',1,   1,   1,     3.636,    -5.909,     0.000,     0.000,     0.000,     0.000,   1
   323,'1 ',1,   1,   1,   -22.574,    40.149,     0.000,     0.000,     0.000,     0.000,   1
   324,'1 ',1,   1,   1,    37.422,    -1.818,     0.000,     0.000,     0.000,     0.000,   1
   526,'1 ',1,   1,   1,   146.000,   -40.000,     0.000,     0.000,     0.000,     0.000,   1
   528,'1 ',1,   1,   1,    28.100,   -20.500,     0.000,     0.000,     0.000,     0.000,   1
   531,'1 ',1,   1,   1,    21.211,     3.788,     0.000,     0.000,     0.000,     0.000,   1
   552,'1 ',1,   1,   1,   -16.817,    -2.121,     0.000,     0.000,     0.000,     0.000,   1
   562,'1 ',1,   1,   1,    50.500,    17.400,     0.000,     0.000,     0.000,     0.000,   1
   609,'1 ',1,   1,   1,    44.846,     0.909,     0.000,     0.000,     0.000,     0.000,   1
   664,'1 ',1,   3,   3,  -113.700,    76.700,     0.000,     0.000,     0.000,     0.000,   1
  1190,'1 ',1,   1,   1,   151.976,    44.194,     0.000,     0.000,     0.000,     0.000,   1
  1200,'1 ',1,   1,   1,  -151.506,    51.770,     0.000,     0.000,     0.000,     0.000,   1
  9003,'1 ',1,   1,   9,     2.710,     0.940,     0.000,     0.000,     0.000,     0.000,   1
  9004,'1 ',1,   1,   9,     0.860,     0.280,     0.000,     0.000,     0.000,     0.000,   1
  9021,'1 ',1,   1,   9,     4.750,     1.560,     0.000,     0.000,     0.000,     0.000,   1
  9022,'1 ',1,   1,   9,     1.530,     0.530,     0.000,     0.000,     0.000,     0.000,   1
  9024,'1 ',1,   1,   9,     1.350,     0.470,     0.000,     0.000,     0.000,     0.000,   1
  9025,'1 ',1,   1,   9,     0.450,     0.160,     0.000,     0.000,     0.000,     0.000,   1
  9026,'1 ',1,   1,   9,     0.450,     0.160,     0.000,     0.000,     0.000,     0.000,   1
  9031,'1 ',1,   1,   9,     1.840,     0.640,     0.000,     0.000,     0.000,     0.000,   1
  9032,'1 ',1,   1,   9,     1.390,     0.480,     0.000,     0.000,     0.000,     0.000,   1
  9033,'1 ',1,   1,   9,     1.890,     0.650,     0.000,     0.000,     0.000,     0.000,   1
  9034,'1 ',1,   1,   9,     1.550,     0.540,     0.000,     0.000,     0.000,     0.000,   1
  9035,'1 ',1,   1,   9,     1.660,     0.580,     0.000,     0.000,     0.000,     0.000,   1
  9036,'1 ',1,   1,   9,     3.030,     1.000,     0.000,     0.000,     0.000,     0.000,   1
  9037,'1 ',1,   1,   9,     1.860,     0.640,     0.000,     0.000,     0.000,     0.000,   1
  9038,'1 ',1,   1,   9,     2.580,     0.890,     0.000,     0.000,     0.000,     0.000,   1
  9041,'1 ',1,   1,   9,     1.010,     0.350,     0.000,     0.000,     0.000,     0.000,   1
  9042,'1 ',1,   1,   9,     0.810,     0.280,     0.000,     0.000,     0.000,     0.000,   1
  9043,'1 ',1,   1,   9,     1.600,     0.520,     0.000,     0.000,     0.000,     0.000,   1
  9052,'1 ',1,   1,   9,    30.000,    23.000,     0.000,     0.000,     0.000,     0.000,   1
  9071,'1 ',1,   1,   9,     1.020,     0.350,     0.000,     0.000,     0.000,     0.000,   1
  9072,'1 ',1,   1,   9,     1.020,     0.350,     0.000,     0.000,     0.000,     0.000,   1
  9121,'1 ',1,   1,   9,     3.800,     1.250,     0.000,     0.000,     0.000,     0.000,   1
  9533,'1 ',1,   1,   9,     1.190,     0.410,     0.000,     0.000,     0.000,     0.000,   1
 0 /End of Load data, Begin Generator data
 10000,'1 ',    -5.000,   178.658,   196.506,   -10.000,1.01530,     0,   214.455,   0.00140,   0.12000,   0.00000,   0.00000,1.00000,1,  100.0,  9999.000, -9999.000,   1,1.0000
 10001,'1 ',    -5.000,    84.925,    93.415,   -20.000,1.02050,     0,   102.084,   0.00140,   0.12000,   0.00000,   0.00000,1.00000,1,  100.0,  9999.000, -9999.000,   1,1.0000
 10002,'1 ',   -10.000,   303.061,   333.361,   -20.000,1.00100,     0,   363.864,   0.00140,   0.12000,   0.00000,   0.00000,1.00000,1,  100.0,  9999.000, -9999.000,   1,1.0000
 10003,'1 ',     0.000,    76.075,    83.681,   -25.000,0.95830,     0,    91.288,   0.00140,   0.12000,   0.00000,   0.00000,1.00000,1,  100.0,  9999.000, -9999.000,   1,1.0000
 10004,'1 ',     0.000,   293.039,   322.316,    12.000,0.96320,     0,   351.617,   0.00140,   0.12000,   0.00000,   0.00000,1.00000,1,  100.0,  9999.000, -9999.000,   1,1.0000
 10005,'1 ',   429.408,   187.405,   240.000,  -240.000,1.02500,     0,   835.000,   0.00190,   0.33900,   0.00000,   0.00000,1.00000,1,  100.0,  9999.000, -9999.000,   1,1.0000
 10006,'1 ',   177.488,    97.889,   107.663,   -11.000,1.05200,     0,   270.000,   0.00160,   0.18500,   0.00000,   0.00000,1.00000,1,  100.0,  9999.000, -9999.000,   1,1.0000
 10007,'1 ',   332.075,    80.408,   153.000,  -153.000,1.05200,     0,   410.000,   0.00190,   0.22840,   0.00000,   0.00000,1.00000,1,  100.0,  9999.000, -9999.000,   1,1.0000
 10008,'1 ',    77.866,    26.713,    56.000,   -30.000,1.00000,     0,   125.000,   0.00400,   0.13400,   0.00000,   0.00000,1.00000,1,  100.0,  9999.000, -9999.000,   1,1.0000
 10009,'1 ',   133.975,   137.398,   151.122,   -24.000,0.99000,     0,   270.000,   0.00160,   0.18500,   0.00000,   0.00000,1.00000,1,  100.0,  9999.000, -9999.000,   1,1.0000
 10010,'1 ',  2210.017,  1451.071,  2200.000,  -500.000,1.04350,     0,  2911.000,   0.00100,   0.19300,   0.00000,   0.00000,1.00000,1,  100.0,  9999.000, -9999.000,   1,1.0000
 10011,'1 ',   274.821,   236.185,   259.801,   -60.000,1.02330,     0,   410.000,   0.00190,   0.22840,   0.00000,   0.00000,1.00000,1,  100.0,  9999.000, -9999.000,   1,1.0000
 10012,'1 ',     0.000,   447.391,   492.125,   -25.000,1.01030,     0,   536.863,   0.00140,   0.12000,   0.00000,   0.00000,1.00000,1,  100.0,  9999.000, -9999.000,   1,1.0000
 10013,'1 ',  -925.030,   374.124,   411.535,  -125.000,1.05500,     0,  1197.386,   0.00100,   0.19300,   0.00000,   0.00000,1.00000,1,  100.0,  9999.000, -9999.000,   1,1.0000
 10014,'1 ',   321.769,    65.522,    75.000,   -50.000,1.05100,     0,   410.000,   0.00190,   0.22840,   0.00000,   0.00000,1.00000,1,  100.0,  9999.000, -9999.000,   1,1.0000
 10015,'1 ',   796.980,   199.110,   300.000,  -100.000,1.04350,     0,   911.000,   0.00100,   0.19300,   0.00000,   0.00000,1.00000,1,  100.0,  9999.000, -9999.000,   1,1.0000
 10016,'1 ',    96.187,    40.168,    44.186,   -15.000,1.05280,     0,   125.000,   0.00400,   0.13400,   0.00000,   0.00000,1.00000,1,  100.0,  9999.000, -9999.000,   1,1.0000
 10017,'1 ',   248.484,   -50.370,   100.000,   -55.407,1.05280,     0,   410.000,   0.00190,   0.22840,   0.00000,   0.00000,1.00000,1,  100.0,  9999.000, -9999.000,   1,1.0000
 10018,'1 ',   117.944,    48.333,    50.000,   -25.000,1.07350,     0,   270.000,   0.00160,   0.18500,   0.00000,   0.00000,1.00000,1,  100.0,  9999.000, -9999.000,   1,1.0000
 10019,'1 ',   425.972,   -34.978,   175.000,   -50.000,1.05350,     0,   835.000,   0.00190,   0.33900,   0.00000,   0.00000,1.00000,1,  100.0,  9999.000, -9999.000,   1,1.0000
 10020,'1 ',   247.339,   -17.224,    90.000,   -50.000,1.04350,     0,   410.000,   0.00190,   0.22840,   0.00000,   0.00000,1.00000,1,  100.0,  9999.000, -9999.000,   1,1.0000
 10021,'1 ',     0.000,    45.360,    49.895,   -10.000,0.96300,     0,    54.431,   0.00140,   0.12000,   0.00000,   0.00000,1.00000,1,  100.0,  9999.000, -9999.000,   1,1.0000
 10022,'1 ',   234.743,   113.065,   124.369,   -40.000,0.92900,     0,   410.000,   0.00190,   0.22840,   0.00000,   0.00000,1.00000,1,  100.0,  9999.000, -9999.000,   1,1.0000
 10023,'1 ',     0.000,   171.058,   188.161,   -50.000,0.98290,     0,   205.267,   0.00140,   0.12000,   0.00000,   0.00000,1.00000,1,  100.0,  9999.000, -9999.000,   1,1.0000
 10024,'1 ',   261.080,    36.597,    90.000,   -45.000,1.05220,     0,   410.000,   0.00190,   0.22840,   0.00000,   0.00000,1.00000,1,  100.0,  9999.000, -9999.000,   1,1.0000
 10025,'1 ',    96.187,    38.652,    42.517,   -15.000,1.00770,     0,   270.000,   0.00160,   0.18500,   0.00000,   0.00000,1.00000,1,  100.0,  9999.000, -9999.000,   1,1.0000
 10026,'1 ',   229.017,    43.891,    80.000,   -50.000,1.05220,     0,   410.000,   0.00190,   0.22840,   0.00000,   0.00000,1.00000,1,  100.0,  9999.000, -9999.000,   1,1.0000
 10027,'1 ',  1374.104,   297.221,   400.000,  -100.000,1.06500,     0,  1911.000,   0.00100,   0.19300,   0.00000,   0.00000,1.00000,1,  100.0,  9999.000, -9999.000,   1,1.0000
 10028,'1 ',  1374.104,   364.450,   400.000,  -100.000,1.06500,     0,  1911.000,   0.00100,   0.19300,   0.00000,   0.00000,1.00000,1,  100.0,  9999.000, -9999.000,   1,1.0000
 10029,'1 ',   543.916,    73.756,   300.000,  -300.000,1.05510,     0,   835.000,   0.00190,   0.33900,   0.00000,   0.00000,1.00000,1,  100.0,  9999.000, -9999.000,   1,1.0000
 10030,'1 ',  2259.256,  1081.845,  1190.007, -1000.000,1.04350,     0,  2911.000,   0.00100,   0.19300,   0.00000,   0.00000,1.00000,1,  100.0,  9999.000, -9999.000,   1,1.0000
 10031,'1 ',   485.517,   169.733,   260.000,  -260.000,1.01500,     0,   835.000,   0.00190,   0.33900,   0.00000,   0.00000,1.00000,1,  100.0,  9999.000, -9999.000,   1,1.0000
 10032,'1 ',   311.464,    51.090,   150.000,  -150.000,1.01000,     0,   512.000,   0.00400,   0.20000,   0.00000,   0.00000,1.00000,1,  100.0,  9999.000, -9999.000,   1,1.0000
 10033,'1 ',   114.509,    80.441,    88.482,   -60.000,1.00800,     0,   270.000,   0.00160,   0.18500,   0.00000,   0.00000,1.00000,1,  100.0,  9999.000, -9999.000,   1,1.0000
 10034,'1 ',   515.289,   279.558,   320.000,  -320.000,1.00000,     0,   835.000,   0.00190,   0.33900,   0.00000,   0.00000,1.00000,1,  100.0,  9999.000, -9999.000,   1,1.0000
 10035,'1 ',   286.272,   149.250,   300.000,  -300.000,1.05000,     0,   410.000,   0.00190,   0.22840,   0.00000,   0.00000,1.00000,1,  100.0,  9999.000, -9999.000,   1,1.0000
 10036,'1 ',   346.961,   255.491,   300.000,  -300.000,1.00000,     0,   512.000,   0.00400,   0.20000,   0.00000,   0.00000,1.00000,1,  100.0,  9999.000, -9999.000,   1,1.0000
 10037,'1 ',   395.055,    53.217,   250.000,  -250.000,1.04000,     0,   835.000,   0.00190,   0.33900,   0.00000,   0.00000,1.00000,1,  100.0,  9999.000, -9999.000,   1,1.0000
 10038,'1 ',   343.526,   134.978,   500.000,  -500.000,1.00000,     0,   512.000,   0.00400,   0.20000,   0.00000,   0.00000,1.00000,1,  100.0,  9999.000, -9999.000,   1,1.0000
 10039,'1 ',   687.052,   318.982,   350.881,  -300.000,1.01650,     0,   911.000,   0.00100,   0.19300,   0.00000,   0.00000,1.00000,1,  100.0,  9999.000, -9999.000,   1,1.0000
 10040,'1 ',   286.272,   158.101,   200.000,  -200.000,1.01000,     0,   410.000,   0.00190,   0.22840,   0.00000,   0.00000,1.00000,1,  100.0,  9999.000, -9999.000,   1,1.0000
 10041,'1 ',   629.798,    73.578,   400.000,  -400.000,1.00000,     0,   911.000,   0.00100,   0.19300,   0.00000,   0.00000,1.00000,1,  100.0,  9999.000, -9999.000,   1,1.0000
 10042,'1 ',   658.173,    -4.035,   600.000,  -600.000,1.05000,     0,   911.000,   0.00100,   0.19300,   0.00000,   0.00000,1.00000,1,  100.0,  9999.000, -9999.000,   1,1.0000
 10043,'1 ',   194.665,    74.158,   100.000,    40.000,0.99300,     0,   410.000,   0.00190,   0.22840,   0.00000,   0.00000,1.00000,1,  100.0,  9999.000, -9999.000,   1,1.0000
 10044,'1 ',    96.187,    52.090,    80.000,    40.000,1.01000,     0,   270.000,   0.00160,   0.18500,   0.00000,   0.00000,1.00000,1,  100.0,  9999.000, -9999.000,   1,1.0000
 10045,'1 ',   534.755,   239.557,   263.511,  -210.000,1.05070,     0,   835.000,   0.00190,   0.33900,   0.00000,   0.00000,1.00000,1,  100.0,  9999.000, -9999.000,   1,1.0000
 10046,'1 ',   713.389,   139.082,   280.000,  -280.000,1.05070,     0,   911.000,   0.00100,   0.19300,   0.00000,   0.00000,1.00000,1,  100.0,  9999.000, -9999.000,   1,1.0000
 10047,'1 ',  1385.555,   604.958,   665.433,  -420.000,1.03230,     0,  1814.229,   0.00100,   0.19300,   0.00000,   0.00000,1.00000,1,  100.0,  9999.000, -9999.000,   1,1.0000
 10048,'1 ',   267.950,    94.199,   100.000,  -100.000,1.01450,     0,   410.000,   0.00190,   0.22840,   0.00000,   0.00000,1.00000,1,  100.0,  9999.000, -9999.000,   1,1.0000
 10049,'1 ',   425.972,   260.333,   286.360,  -224.000,1.05070,     0,   835.000,   0.00190,   0.33900,   0.00000,   0.00000,1.00000,1,  100.0,  9999.000, -9999.000,   1,1.0000
 10050,'1 ',   377.879,   676.380,   743.988,     0.000,1.05070,     0,   835.000,   0.00190,   0.33900,   0.00000,   0.00000,1.00000,1,  100.0,  9999.000, -9999.000,   1,1.0000
 10051,'1 ',   211.841,    36.560,   120.000,     0.000,1.05070,     0,   410.000,   0.00190,   0.22840,   0.00000,   0.00000,1.00000,1,  100.0,  9999.000, -9999.000,   1,1.0000
 10052,'1 ',   469.486,   146.711,   224.000,  -224.000,1.02900,     0,   835.000,   0.00190,   0.33900,   0.00000,   0.00000,1.00000,1,  100.0,  9999.000, -9999.000,   1,1.0000
 10053,'1 ',   572.543,   265.878,   292.416,  -200.000,1.05000,     0,   835.000,   0.00190,   0.33900,   0.00000,   0.00000,1.00000,1,  100.0,  9999.000, -9999.000,   1,1.0000
 10054,'1 ',    42.368,    67.293,    74.013,     0.000,1.01450,     0,   125.000,   0.00400,   0.13400,   0.00000,   0.00000,1.00000,1,  100.0,  9999.000, -9999.000,   1,1.0000
 10055,'1 ',   700.391,   139.820,   153.630,     0.000,1.05070,     0,   835.000,   0.00190,   0.33900,   0.00000,   0.00000,1.00000,1,  100.0,  9999.000, -9999.000,   1,1.0000
 10056,'1 ',    51.529,    47.330,    52.052,     0.000,0.99670,     0,   125.000,   0.00400,   0.13400,   0.00000,   0.00000,1.00000,1,  100.0,  9999.000, -9999.000,   1,1.0000
 10057,'1 ',   188.939,   139.625,   153.578,   -90.000,1.02120,     0,   410.000,   0.00190,   0.22840,   0.00000,   0.00000,1.00000,1,  100.0,  9999.000, -9999.000,   1,1.0000
 10058,'1 ',   458.035,   264.175,   290.587,  -150.000,1.01450,     0,   835.000,   0.00190,   0.33900,   0.00000,   0.00000,1.00000,1,  100.0,  9999.000, -9999.000,   1,1.0000
 10059,'1 ',   458.035,   239.540,   263.484,     0.000,1.00170,     0,   835.000,   0.00190,   0.33900,   0.00000,   0.00000,1.00000,1,  100.0,  9999.000, -9999.000,   1,1.0000
 10060,'1 ',   132.830,   133.916,   147.302,     0.000,0.98930,     0,   270.000,   0.00160,   0.18500,   0.00000,   0.00000,1.00000,1,  100.0,  9999.000, -9999.000,   1,1.0000
 10061,'1 ',  1479.452,   424.019,   600.000,  -100.000,1.05070,     0,  1846.817,   0.00100,   0.19300,   0.00000,   0.00000,1.00000,1,  100.0,  9999.000, -9999.000,   1,1.0000
 10062,'1 ',   801.561,   305.613,   325.000,  -125.000,1.05070,     0,   911.000,   0.00100,   0.19300,   0.00000,   0.00000,1.00000,1,  100.0,  9999.000, -9999.000,   1,1.0000
 10063,'1 ',   633.233,   197.831,   300.000,  -200.000,1.01450,     0,   911.000,   0.00100,   0.19300,   0.00000,   0.00000,1.00000,1,  100.0,  9999.000, -9999.000,   1,1.0000
 10064,'1 ',    -4.200,     6.010,     6.607,    -2.000,0.99450,     0,    25.000,   0.00140,   0.12000,   0.00000,   0.00000,1.00000,1,  100.0,  9999.000, -9999.000,   1,1.0000
 10065,'1 ',   -35.810,    23.467,    25.806,   -17.350,1.00000,     0,   125.000,   0.00400,   0.13400,   0.00000,   0.00000,1.00000,1,  100.0,  9999.000, -9999.000,   1,1.0000
 10066,'1 ',   -26.480,    19.266,    21.185,   -12.800,1.00000,     0,   125.000,   0.00400,   0.13400,   0.00000,   0.00000,1.00000,1,  100.0,  9999.000, -9999.000,   1,1.0000
 10067,'1 ',    57.254,    40.262,    44.269,   -38.000,1.00000,     0,   125.000,   0.00400,   0.13400,   0.00000,   0.00000,1.00000,1,  100.0,  9999.000, -9999.000,   1,1.0000
 10068,'1 ',     9.161,     7.504,     8.250,    -6.000,1.00000,     0,    25.000,   0.00140,   0.12000,   0.00000,   0.00000,1.00000,1,  100.0,  9999.000, -9999.000,   1,1.0000
 0 /End of Generator data, Begin Branch data
     1,      5,'1 ',   0.00100,   0.00600,   0.00000,    0.00,    0.00,    0.00,  0.00000,  0.00000,  0.00000,  0.00000,1,   0.00,   1,1.0000
     2,      6,'1 ',   0.00100,   0.00900,   0.00000,    0.00,    0.00,    0.00,  0.00000,  0.00000,  0.00000,  0.00000,1,   0.00,   1,1.0000
     2,      8,'1 ',   0.00600,   0.02700,   0.05400,    0.00,    0.00,    0.00,  0.00000,  0.00000,  0.00000,  0.00000,1,   0.00,   1,1.0000
     3,      7,'1 ',   0.00000,   0.00300,   0.00000,    0.00,    0.00,    0.00,  0.00000,  0.00000,  0.00000,  0.00000,1,   0.00,   1,1.0000
     3,     19,'1 ',   0.00800,   0.06900,   0.13900,    0.00,    0.00,    0.00,  0.00000,  0.00000,  0.00000,  0.00000,1,   0.00,   1,1.0000
     3,    150,'1 ',   0.00100,   0.00700,   0.00000,    0.00,    0.00,    0.00,  0.00000,  0.00000,  0.00000,  0.00000,1,   0.00,   1,1.0000
     4,     16,'1 ',   0.00200,   0.01900,   1.12700,    0.00,    0.00,    0.00,  0.00000,  0.00000,  0.00000,  0.00000,1,   0.00,   1,1.0000
     5,      9,'1 ',   0.00600,   0.02900,   0.01800,    0.00,    0.00,    0.00,  0.00000,  0.00000,  0.00000,  0.00000,1,   0.00,   1,1.0000
     7,     12,'1 ',   0.00100,   0.00900,   0.07000,    0.00,    0.00,    0.00,  0.00000,  0.00000,  0.00000,  0.00000,1,   0.00,   1,1.0000
     7,    131,'1 ',   0.00100,   0.00700,   0.01400,    0.00,    0.00,    0.00,  0.00000,  0.00000,  0.00000,  0.00000,1,   0.00,   1,1.0000
     8,     11,'1 ',   0.01300,   0.05950,   0.03300,    0.00,    0.00,    0.00,  0.00000,  0.00000,  0.00000,  0.00000,1,   0.00,   1,1.0000
     8,     14,'1 ',   0.01300,   0.04200,   0.08100,    0.00,    0.00,    0.00,  0.00000,  0.00000,  0.00000,  0.00000,1,   0.00,   1,1.0000
     9,     11,'1 ',   0.00600,   0.02700,   0.01300,    0.00,    0.00,    0.00,  0.00000,  0.00000,  0.00000,  0.00000,1,   0.00,   1,1.0000
    11,     13,'1 ',   0.00800,   0.03400,   0.01800,    0.00,    0.00,    0.00,  0.00000,  0.00000,  0.00000,  0.00000,1,   0.00,   1,1.0000
    12,     21,'1 ',   0.00200,   0.01500,   0.11800,    0.00,    0.00,    0.00,  0.00000,  0.00000,  0.00000,  0.00000,1,   0.00,   1,1.0000
    13,     20,'1 ',   0.00600,   0.03400,   0.01600,    0.00,    0.00,    0.00,  0.00000,  0.00000,  0.00000,  0.00000,1,   0.00,   1,1.0000
    14,     15,'1 ',   0.01400,   0.04200,   0.09700,    0.00,    0.00,    0.00,  0.00000,  0.00000,  0.00000,  0.00000,1,   0.00,   1,1.0000
    15,     37,'1 ',   0.06500,   0.24800,   0.12100,    0.00,    0.00,    0.00,  0.00000,  0.00000,  0.00000,  0.00000,1,   0.00,   1,1.0000
    15,     89,'1 ',   0.09900,   0.24800,   0.03500,    0.00,    0.00,    0.00,  0.00000,  0.00000,  0.00000,  0.00000,1,   0.00,   1,1.0000
    15,     90,'1 ',   0.09600,   0.36300,   0.04800,    0.00,    0.00,    0.00,  0.00000,  0.00000,  0.00000,  0.00000,1,   0.00,   1,1.0000
    16,     42,'1 ',   0.00200,   0.02200,   1.28000,    0.00,    0.00,    0.00,  0.00000,  0.00000,  0.00000,  0.00000,1,   0.00,   1,1.0000
    19,     21,'1 ',   0.00200,   0.01800,   0.03600,    0.00,    0.00,    0.00,  0.00000,  0.00000,  0.00000,  0.00000,1,   0.00,   1,1.0000
    19,     87,'1 ',   0.01300,   0.08000,   0.15100,    0.00,    0.00,    0.00,  0.00000,  0.00000,  0.00000,  0.00000,1,   0.00,   1,1.0000
    20,     22,'1 ',   0.01600,   0.03300,   0.01500,    0.00,    0.00,    0.00,  0.00000,  0.00000,  0.00000,  0.00000,1,   0.00,   1,1.0000
    20,     27,'1 ',   0.06900,   0.18600,   0.09800,    0.00,    0.00,    0.00,  0.00000,  0.00000,  0.00000,  0.00000,1,   0.00,   1,1.0000
    21,     24,'1 ',   0.00400,   0.03400,   0.28000,    0.00,    0.00,    0.00,  0.00000,  0.00000,  0.00000,  0.00000,1,   0.00,   1,1.0000
    22,     23,'1 ',   0.05200,   0.11100,   0.05000,    0.00,    0.00,    0.00,  0.00000,  0.00000,  0.00000,  0.00000,1,   0.00,   1,1.0000
    23,     25,'1 ',   0.01900,   0.03900,   0.01800,    0.00,    0.00,    0.00,  0.00000,  0.00000,  0.00000,  0.00000,1,   0.00,   1,1.0000
    24,    319,'1 ',   0.00700,   0.06800,   0.13400,    0.00,    0.00,    0.00,  0.00000,  0.00000,  0.00000,  0.00000,1,   0.00,   1,1.0000
    25,     26,'1 ',   0.03600,   0.07100,   0.03400,    0.00,    0.00,    0.00,  0.00000,  0.00000,  0.00000,  0.00000,1,   0.00,   1,1.0000
    26,     27,'1 ',   0.04500,   0.12000,   0.06500,    0.00,    0.00,    0.00,  0.00000,  0.00000,  0.00000,  0.00000,1,   0.00,   1,1.0000
    26,    320,'1 ',   0.04300,   0.13000,   0.01400,    0.00,    0.00,    0.00,  0.00000,  0.00000,  0.00000,  0.00000,1,   0.00,   1,1.0000
    33,     34,'1 ',   0.00000,   0.06300,   0.00000,    0.00,    0.00,    0.00,  0.00000,  0.00000,  0.00000,  0.00000,1,   0.00,   1,1.0000
    33,     38,'1 ',   0.00250,   0.01200,   0.01300,    0.00,    0.00,    0.00,  0.00000,  0.00000,  0.00000,  0.00000,1,   0.00,   1,1.0000
    33,     40,'1 ',   0.00600,   0.02900,   0.02000,    0.00,    0.00,    0.00,  0.00000,  0.00000,  0.00000,  0.00000,1,   0.00,   1,1.0000
    33,     41,'1 ',   0.00700,   0.04300,   0.02600,    0.00,    0.00,    0.00,  0.00000,  0.00000,  0.00000,  0.00000,1,   0.00,   1,1.0000
    34,     42,'1 ',   0.00100,   0.00800,   0.04200,    0.00,    0.00,    0.00,  0.00000,  0.00000,  0.00000,  0.00000,1,   0.00,   1,1.0000
    35,     72,'1 ',   0.01200,   0.06000,   0.00800,    0.00,    0.00,    0.00,  0.00000,  0.00000,  0.00000,  0.00000,1,   0.00,   1,1.0000
    35,     76,'1 ',   0.00600,   0.01400,   0.00200,    0.00,    0.00,    0.00,  0.00000,  0.00000,  0.00000,  0.00000,1,   0.00,   1,1.0000
    35,     77,'1 ',   0.01000,   0.02900,   0.00300,    0.00,    0.00,    0.00,  0.00000,  0.00000,  0.00000,  0.00000,1,   0.00,   1,1.0000
    36,     88,'1 ',   0.00400,   0.02700,   0.04300,    0.00,    0.00,    0.00,  0.00000,  0.00000,  0.00000,  0.00000,1,   0.00,   1,1.0000
    37,     38,'1 ',   0.00800,   0.04700,   0.00800,    0.00,    0.00,    0.00,  0.00000,  0.00000,  0.00000,  0.00000,1,   0.00,   1,1.0000
    37,     40,'1 ',   0.02200,   0.06400,   0.00700,    0.00,    0.00,    0.00,  0.00000,  0.00000,  0.00000,  0.00000,1,   0.00,   1,1.0000
    37,     41,'1 ',   0.01000,   0.03600,   0.02000,    0.00,    0.00,    0.00,  0.00000,  0.00000,  0.00000,  0.00000,1,   0.00,   1,1.0000
    37,     49,'1 ',   0.01700,   0.08100,   0.04800,    0.00,    0.00,    0.00,  0.00000,  0.00000,  0.00000,  0.00000,1,   0.00,   1,1.0000
    37,     89,'1 ',   0.10200,   0.25400,   0.03300,    0.00,    0.00,    0.00,  0.00000,  0.00000,  0.00000,  0.00000,1,   0.00,   1,1.0000
    37,     90,'1 ',   0.04700,   0.12700,   0.01600,    0.00,    0.00,    0.00,  0.00000,  0.00000,  0.00000,  0.00000,1,   0.00,   1,1.0000
    38,     41,'1 ',   0.00800,   0.03700,   0.02000,    0.00,    0.00,    0.00,  0.00000,  0.00000,  0.00000,  0.00000,1,   0.00,   1,1.0000
    38,     43,'1 ',   0.03200,   0.08700,   0.04000,    0.00,    0.00,    0.00,  0.00000,  0.00000,  0.00000,  0.00000,1,   0.00,   1,1.0000
    39,     42,'1 ',   0.00060,   0.00640,   0.40400,    0.00,    0.00,    0.00,  0.00000,  0.00000,  0.00000,  0.00000,1,   0.00,   1,1.0000
    40,     48,'1 ',   0.02600,   0.15400,   0.02200,    0.00,    0.00,    0.00,  0.00000,  0.00000,  0.00000,  0.00000,1,   0.00,   1,1.0000
    41,     42,'1 ',   0.00000,   0.02900,   0.00000,    0.00,    0.00,    0.00,  0.00000,  0.00000,  0.00000,  0.00000,1,   0.00,   1,1.0000
    41,     49,'1 ',   0.06500,   0.19100,   0.02000,    0.00,    0.00,    0.00,  0.00000,  0.00000,  0.00000,  0.00000,1,   0.00,   1,1.0000
    41,     51,'1 ',   0.03100,   0.08900,   0.03600,    0.00,    0.00,    0.00,  0.00000,  0.00000,  0.00000,  0.00000,1,   0.00,   1,1.0000
    42,     46,'1 ',   0.00200,   0.01400,   0.80600,    0.00,    0.00,    0.00,  0.00000,  0.00000,  0.00000,  0.00000,1,   0.00,   1,1.0000
    43,     44,'1 ',   0.02600,   0.07200,   0.03500,    0.00,    0.00,    0.00,  0.00000,  0.00000,  0.00000,  0.00000,1,   0.00,   1,1.0000
    43,     48,'1 ',   0.09500,   0.26200,   0.03200,    0.00,    0.00,    0.00,  0.00000,  0.00000,  0.00000,  0.00000,1,   0.00,   1,1.0000
    43,     53,'1 ',   0.01300,   0.03900,   0.01600,    0.00,    0.00,    0.00,  0.00000,  0.00000,  0.00000,  0.00000,1,   0.00,   1,1.0000
    44,     47,'1 ',   0.02700,   0.08400,   0.03900,    0.00,    0.00,    0.00,  0.00000,  0.00000,  0.00000,  0.00000,1,   0.00,   1,1.0000
    44,     54,'1 ',   0.02800,   0.08400,   0.03700,    0.00,    0.00,    0.00,  0.00000,  0.00000,  0.00000,  0.00000,1,   0.00,   1,1.0000
    45,     60,'1 ',   0.00700,   0.04100,   0.31200,    0.00,    0.00,    0.00,  0.00000,  0.00000,  0.00000,  0.00000,1,   0.00,   1,1.0000
    45,     74,'1 ',   0.00900,   0.05400,   0.41100,    0.00,    0.00,    0.00,  0.00000,  0.00000,  0.00000,  0.00000,1,   0.00,   1,1.0000
    46,     81,'1 ',   0.00500,   0.04200,   0.69000,    0.00,    0.00,    0.00,  0.00000,  0.00000,  0.00000,  0.00000,1,   0.00,   1,1.0000
    47,     73,'1 ',   0.05200,   0.14500,   0.07300,    0.00,    0.00,    0.00,  0.00000,  0.00000,  0.00000,  0.00000,1,   0.00,   1,1.0000
    47,    113,'1 ',   0.04300,   0.11800,   0.01300,    0.00,    0.00,    0.00,  0.00000,  0.00000,  0.00000,  0.00000,1,   0.00,   1,1.0000
    48,    107,'1 ',   0.02500,   0.06200,   0.00700,    0.00,    0.00,    0.00,  0.00000,  0.00000,  0.00000,  0.00000,1,   0.00,   1,1.0000
    49,     51,'1 ',   0.03100,   0.09400,   0.04300,    0.00,    0.00,    0.00,  0.00000,  0.00000,  0.00000,  0.00000,1,   0.00,   1,1.0000
    51,     52,'1 ',   0.03700,   0.10900,   0.04900,    0.00,    0.00,    0.00,  0.00000,  0.00000,  0.00000,  0.00000,1,   0.00,   1,1.0000
    52,     55,'1 ',   0.02700,   0.08000,   0.03600,    0.00,    0.00,    0.00,  0.00000,  0.00000,  0.00000,  0.00000,1,   0.00,   1,1.0000
    53,     54,'1 ',   0.02500,   0.07300,   0.03500,    0.00,    0.00,    0.00,  0.00000,  0.00000,  0.00000,  0.00000,1,   0.00,   1,1.0000
    54,     55,'1 ',   0.03500,   0.10300,   0.04700,    0.00,    0.00,    0.00,  0.00000,  0.00000,  0.00000,  0.00000,1,   0.00,   1,1.0000
    55,     57,'1 ',   0.06500,   0.16900,   0.08200,    0.00,    0.00,    0.00,  0.00000,  0.00000,  0.00000,  0.00000,1,   0.00,   1,1.0000
    57,     58,'1 ',   0.04600,   0.08000,   0.03600,    0.00,    0.00,    0.00,  0.00000,  0.00000,  0.00000,  0.00000,1,   0.00,   1,1.0000
    57,     63,'1 ',   0.15900,   0.53700,   0.07100,    0.00,    0.00,    0.00,  0.00000,  0.00000,  0.00000,  0.00000,1,   0.00,   1,1.0000
    58,     59,'1 ',   0.00900,   0.02600,   0.00500,    0.00,    0.00,    0.00,  0.00000,  0.00000,  0.00000,  0.00000,1,   0.00,   1,1.0000
    59,     61,'1 ',   0.00200,   0.01300,   0.01500,    0.00,    0.00,    0.00,  0.00000,  0.00000,  0.00000,  0.00000,1,   0.00,   1,1.0000
    60,     62,'1 ',   0.00900,   0.06500,   0.48500,    0.00,    0.00,    0.00,  0.00000,  0.00000,  0.00000,  0.00000,1,   0.00,   1,1.0000
    62,     64,'1 ',   0.01600,   0.10500,   0.20300,    0.00,    0.00,    0.00,  0.00000,  0.00000,  0.00000,  0.00000,1,   0.00,   1,1.0000
...